resultados/_temp_alt3_1p00/LineSummary.csv
line,maxCurrentA,normAmps,maxLoadingPct,meanLoadingPct,overloadHours
rbt_1607347,93.04254284975751,124.95,74.4638198077291,25.709987008187767,0
sbt_7584,93.04255298116678,163.8,56.80253539753771,19.612107068423352,0
sbt_22840,93.04254834116514,163.8,56.80253256481388,19.612106991624653,0
rbt_630758,31.600924428848913,76.65,41.227559594062505,17.13492407185919,0
rbt_637576,24.915068046262714,61.95,40.21802751616257,14.458749228503066,0
rbt_606147,25.623475010447073,76.65,33.42919114213577,12.229294959398063,0
rbt_632607,40.87359777068286,124.95,32.711963001746994,15.396897916143475,0
rbt_637918,17.930615721480113,61.95,28.94368962305103,11.127443179872197,0
rbt_1130761,25.380454453767946,90.3,28.10681556341965,13.22596848078196,0
rbt_1607350,22.1300525612864,90.3,24.507256435533115,8.725361800926082,0
rbt_605836,21.54662794659745,90.3,23.861160516719217,11.23704492857019,0
rbt_637360,14.723616467209629,61.95,23.766935378869455,11.166134863665258,0
rbt_606126,13.628601593583536,61.95,21.999356890368905,7.756458443909089,0
rbt_1633671,13.465529093535414,61.95,21.736124444770645,9.737433431416155,0
rbt_3405844,18.9923048370882,90.3,21.032452754250496,7.212182894211353,0
rbt_626476,12.72716448645556,61.95,20.54425260121963,9.664933078449023,0
rbt_606143,14.945298248152685,76.65,19.498105998894566,6.840651583754341,0
rbt_3435739,13.54058304838947,76.65,17.665470382765125,7.93193583300502,0
rbt_635862,10.802206287306872,61.95,17.436975443594626,5.951868032152792,0
rbt_605816,10.292975934506446,61.95,16.614973259897408,6.139933516345213,0
rbt_1627323,12.526229844132883,76.65,16.342113299586277,7.687737309559034,0
sbt_34378,20.565406858412373,128.1,16.054181778620123,7.876394221451768,0
sbt_34379,20.501197603038385,128.1,16.00405745748508,7.763326339572431,0
rbt_637397,9.767053149757974,61.95,15.766026069020134,7.4100412704990255,0
sbt_24791,25.623496357506525,163.8,15.643160169417902,5.7226835441372295,0
sbt_3174,25.623487462996323,163.8,15.643154739313994,5.722685159255999,0
rbt_609688,11.268129112801384,76.65,14.700755528768926,5.2718870963615245,0
smt_19119,21.153661571639798,163.8,12.9143233038094,7.808654753240457,0
smt_29422,21.153164798680884,163.8,12.914020023614704,7.808826338054089,0
smt_17184,21.15256571401503,163.8,12.913654282060458,7.808246693432278,0
rbt_606139,9.383603280904355,76.65,12.24214387593523,4.343058434016116,0
rbt_623004,7.3324638573741066,61.95,11.83609985048282,4.514077071779592,0
rbt_1638954,7.1515193170077405,61.95,11.544018267970525,5.425911547639418,0
rbt_1607265,10.051239326898779,90.3,11.1309405613497,5.237818359217488,0
sbt_11363,18.218607029582707,163.8,11.122470714030957,4.0753057950139935,0
sbt_9361,21.546627985731547,216.3,9.961455379441308,4.6911934796694315,0
rbt_635543,5.871650972029422,61.95,9.478048380999873,3.678569720178123,0
rbt_606121,5.803876590724522,61.95,9.368646635552095,4.401877483159276,0
rbt_1605991,5.551415039126326,61.95,8.961121935635715,4.2127533852785195,0
rbt_1607280,5.506527415359538,61.95,8.888664108732103,4.177244721053598,0
sbt_34393,11.080749812479398,128.1,8.650077917626385,5.686660040240638,0
rbt_606114,7.529381780439086,90.3,8.338185803365544,3.9191372319544953,0
rbt_627337,7.329786225398934,90.3,8.117149751272352,3.816709492119701,0
rbt_1621994,7.1886845986086865,90.3,7.960891028359564,3.7409772742427942,0
rbt_626678,7.0258477596745,90.3,7.780562303072536,3.6588357603548283,0
rbt_606150,4.779806445281072,61.95,7.715587482293902,3.624622794799503,0
rbt_1607272,6.8824162787766285,90.3,7.621723453794717,3.5857947094964353,0
rbt_623007,4.701296458873182,61.95,7.5888562693675246,3.5655685073766055,0
sbt_22748,16.281875921036224,216.3,7.527450726322803,3.54155412470732,0
sbt_7427,16.28186765729719,216.3,7.527446905823944,3.541550188148515,0
sbt_34383,9.632097740192128,128.1,7.519201982975901,4.428799277395903,0
sbt_34392,9.632094580817656,128.1,7.519199516641417,4.713375017429185,0
sbt_34384,9.619664390617313,128.1,7.509496011410861,3.6270001198717092,0
rbt_1630759,5.691965275546867,76.65,7.425916863074843,3.492708601196297,0
rbt_606122,4.595983253724644,61.95,7.418859166625737,3.486937931401626,0
rbt_1229546,6.672109050838203,90.3,7.388825083984721,3.4745405755833474,0
smt_34713,21.140434780810804,286.65,7.374999051390478,4.459296519776093,0
smt_34700,21.140292651040316,286.65,7.374949468355248,4.459266785712576,0
smt_34701,21.1399559834145,286.65,7.374832019331763,4.459196376261204,0
smt_34715,21.139668096563447,286.65,7.374731587847008,4.4591361938154455,0
smt_34702,21.139382966500666,286.65,7.374632118088494,4.459076610500671,0
smt_34703,21.138992419218425,286.65,7.374495872743216,4.458995035288567,0
smt_34704,21.138522945743862,286.65,7.374332093404452,4.458897031020938,0
smt_34716,21.138229538445685,286.65,7.374229736070361,4.458835812553455,0
smt_34705,21.137934551674412,286.65,7.374126827725244,4.458774288848477,0
smt_34717,21.137583064872395,286.65,7.374004208921122,4.458701013106837,0
smt_34706,21.137227203778945,286.65,7.373880064112662,4.458626860730068,0
smt_34707,21.13680822840404,286.65,7.373733901414282,4.458539602440761,0
smt_34708,21.13641788845888,286.65,7.373597728400099,4.458458352215028,0
smt_34709,21.135914186621275,286.65,7.373422008240459,4.4583535686260705,0
smt_34718,21.135633603496895,286.65,7.37332412471547,4.458295230608301,0
smt_34710,21.13535922560676,286.65,7.373228405932935,4.458238204113841,0
smt_34719,21.135072267158062,286.65,7.373128298328297,4.458178585517974,0
smt_34711,21.13478624635018,286.65,7.373028517826681,4.458119184715897,0
smt_34720,21.134460144906264,286.65,7.372914754894912,4.458051487969705,0
smt_34712,21.13415931377767,286.65,7.372809807701961,4.457989063685145,0
smt_34721,21.133943459649675,286.65,7.372734505372293,4.45794428923818,0
smt_34714,21.13393458984244,286.65,7.372731411073588,4.457942448509894,0
rbt_1638606,4.550983078889766,61.95,7.346219659224803,3.45383022758311,0
rbt_605905,6.5111818368826615,90.3,7.210611115041707,3.3894507330451824,0
rbt_1607283,6.447280521771026,90.3,7.139845539059829,3.3584745910322233,0
smt_31417,22.6002870213712,327.6,6.89874451201807,4.19497099706355,0
smt_31416,22.600242606928287,327.6,6.898730954495813,4.1949628285484115,0
smt_31411,22.600225682195646,327.6,6.898725788216009,4.194959715725337,0
smt_31412,22.600206529342675,327.6,6.898719941801793,4.19495619333726,0
smt_31413,22.600092962436133,327.6,6.898685275468905,4.1949353090369685,0
smt_31414,22.600007619685027,327.6,6.898659224568078,4.19491961692043,0
smt_31415,22.59979137433786,327.6,6.898593215609846,4.194879862476677,0
smt_4387,22.59943577355501,327.6,6.898484668362335,4.194814511285867,0
smt_4863,22.599025491833338,327.6,6.898359429741556,4.194739145458157,0
smt_4693,22.598681307043872,327.6,6.898254367229509,4.194675949619633,0
smt_4591,22.5983667800924,327.6,6.898158357781563,4.1946182219665475,0
smt_17964,22.598130014869707,327.6,6.898086085125063,4.185382508910123,0
smt_4627,22.598033007875273,327.6,6.898056473710399,4.194556985833051,0
smt_4527,22.597766048086488,327.6,6.897974984153383,4.194508025126657,0
smt_6826,22.59770168310253,327.6,6.897955336722383,4.185303273159451,0
smt_23134,22.597332084592097,327.6,6.897842516664254,4.194428469129951,0
smt_7012,22.59720727912843,327.6,6.897804419758373,4.185211864922785,0
smt_18545,22.59694301345844,327.6,6.897723752581941,4.194357178093836,0
smt_22791,22.596764272193713,327.6,6.897669191756322,4.185130004806216,0
smt_10381,22.596530829620328,327.6,6.897597933339537,4.1942816882839455,0
smt_18806,22.59632261304736,327.6,6.897534375167082,4.194243568338459,0
smt_24122,22.59625484989254,327.6,6.897513690443387,4.194231164560052,0
smt_7020,22.5962471613529,327.6,6.8975113435143145,4.185034505995733,0
smt_6842,22.595849289347527,327.6,6.897389892963226,4.184961067859003,0
smt_6830,22.595245741948045,327.6,6.8972056599353,4.1848497330058025,0
smt_29390,22.59489705142884,327.6,6.897099222047876,4.184583756448599,0
smt_31407,22.59451990095054,327.6,6.896984096749249,4.184715944797661,0
smt_17776,22.594312396494775,327.6,6.896920755950786,4.184474648107707,0
smt_31408,22.594075419288856,327.6,6.896848418586342,4.193485596166439,0
smt_10747,22.593717497978698,327.6,6.896739162997161,4.184363704779056,0
smt_18202,22.59320092482927,327.6,6.896581478885613,4.184267431212249,0
smt_17794,22.59272159990087,327.6,6.896435164804905,4.18417815175038,0
smt_29420,22.592425445378584,327.6,6.896344763546576,4.1841230148918855,0
smt_22739,22.592252377849857,327.6,6.896291934630602,4.1840908027260335,0
smt_17795,22.59168175814068,327.6,6.896117752790196,4.183984642685093,0
smt_29389,22.591045216840243,327.6,6.895923448363932,4.1838663023991165,0
smt_19163,22.590496766868817,327.6,6.89575603384274,4.183764410359495,0
smt_17961,22.59014723615713,327.6,6.895649339486303,4.183699508253849,0
smt_29388,22.589744135092193,327.6,6.895526292763184,4.183624692167023,0
smt_17962,22.58924873365733,327.6,6.895375071323971,4.183532793721183,0
rbt_1107340,6.173418476608179,90.3,6.836565311858449,3.2168162439806705,0
rbt_605822,6.172879158627297,90.3,6.835968060495345,3.216665694928947,0
rbt_1626486,6.169066389287062,90.3,6.83174572457039,3.2102475337891527,0
rbt_1607287,6.166414113493648,90.3,6.828808542074914,3.2117940624163634,0
rbt_606132,4.12300863087297,61.95,6.655381163636756,3.1270078586715506,0
rbt_623433,5.971989955446332,90.3,6.613499396950534,3.111330445426686,0
rbt_626698,5.930048426446856,90.3,6.567052520982123,3.0863967117841877,0
rbt_1607252,4.9972310748601405,76.65,6.519544781291768,3.0657130222084934,0
smt_6447,21.20507040385418,327.6,6.472854213630702,3.9162066603516745,0
smt_6627,21.20470853270058,327.6,6.472743752350604,3.9161420372309625,0
smt_24630,21.20413165642335,327.6,6.472567660690888,3.9160390849008997,0
smt_24629,21.20377572922311,327.6,6.472459013804367,3.9159756050441246,0
smt_24628,21.20330122103614,327.6,6.4723141700354505,3.9158910246045195,0
smt_24627,21.202948950612218,327.6,6.472206639381019,3.915828268666195,0
smt_6957,21.202619427998744,327.6,6.472106052502669,3.9157695927710434,0
smt_6431,21.20220935343781,327.6,6.471980877117768,3.9156966108379314,0
smt_24626,21.201868108230013,327.6,6.471876711913922,3.915635910137194,0
smt_12228,21.20149710025285,327.6,6.4717634616156445,3.915569947714845,0
smt_6510,21.15994527976257,327.6,6.45907975572728,3.905631236117246,0
smt_19223,21.159444052159806,327.6,6.458926755848536,3.905540806507965,0
smt_22843,21.159017446030305,327.6,6.458796534197283,3.9054638885273945,0
smt_6737,21.158645371418498,327.6,6.4586829583084535,3.905396839246722,0
smt_24665,21.158160548816827,327.6,6.458534966061302,3.9053095234786652,0
smt_24635,21.157659716688755,327.6,6.458382086901329,3.905219385180542,0
smt_24637,21.157141525788415,327.6,6.458223908970822,3.905126187702337,0
smt_24636,21.156634816578443,327.6,6.4580692358298055,3.9050351191823,0
smt_19174,21.156173503047043,327.6,6.457928419733529,3.904952264428736,0
smt_6686,21.1556293310163,327.6,6.457762311055036,3.9048545951662526,0
smt_19173,21.154714339485242,327.6,6.457483009610879,3.904690534862167,0
smt_19172,21.154405180205465,327.6,6.457388638646357,3.904635148472623,0
smt_6544,21.15406784779018,327.6,6.45728566782362,3.9045747416849523,0
smt_6535,21.153569271778018,327.6,6.457133477343717,3.9044855120865534,0
smt_24511,21.153170414585652,327.6,6.457011726063996,3.904235895239106,0
smt_29446,21.152552506360877,327.6,6.4568231093897674,3.904120889432248,0
smt_24634,21.15247948362633,327.6,6.456800819177756,3.904290686552315,0
smt_32671,21.15214501681482,327.6,6.456698723081447,3.9040450982238117,0
smt_24633,21.152090632215366,327.6,6.456682122165862,3.9042212403875474,0
smt_6389,21.151695238015076,327.6,6.4565614279655295,3.9039614886360208,0
smt_24510,21.15168142528286,327.6,6.456557211624804,3.903958921591991,0
smt_24632,21.151672358823358,327.6,6.456554444085273,3.9041465813264584,0
smt_1873,21.151260712220108,327.6,6.456428788833976,3.904073147279553,0
smt_24509,21.151203257016,327.6,6.456411250615385,3.9038700906339385,0
smt_24631,21.15089187611982,327.6,6.456316201501777,3.904007385782125,0
smt_24508,21.150784138402162,327.6,6.456283314530574,3.9037922756207006,0
smt_6527,21.150508707616815,327.6,6.456199239199272,3.903939104445096,0
smt_6426,21.150406331084824,327.6,6.4561679887316314,3.903722167535203,0
smt_6420,21.150021161608812,327.6,6.456050415631505,3.9036507292487017,0
smt_6140,21.149604972009055,327.6,6.455923373629137,3.9035735785260943,0
smt_6653,21.14920801957727,327.6,6.455802203778164,3.9035000334397787,0
smt_6650,21.148816910993585,327.6,6.45568281776361,3.9034276088787894,0
smt_29445,21.148433279012995,327.6,6.455565713984431,3.903356605270153,0
smt_24507,21.148038646667043,327.6,6.4554452523403665,3.903283603356338,0
smt_24506,21.14764537888127,327.6,6.455325207228714,3.90321089189443,0
smt_24505,21.147239572423157,327.6,6.455201334683503,3.9031359019330663,0
smt_24459,21.14689139484214,327.6,6.4550950533706155,3.903071593570026,0
smt_24458,21.146472035229603,327.6,6.45496704372088,3.9029941774172947,0
smt_24457,21.146050076139133,327.6,6.4548382405797105,3.9029163249869168,0
smt_24456,21.1456620907821,327.6,6.454719807931044,3.902844779355968,0
smt_24455,21.14526380751184,327.6,6.45459823184122,3.902771373240379,0
smt_24454,21.14488172208482,327.6,6.45448160014799,3.9027009891246838,0
smt_19165,21.14445985960103,327.6,6.454352826496041,3.902623319292951,0
smt_17113,21.144018793124125,327.6,6.45421819081933,3.902542160572652,0
smt_6993,21.143051212595488,327.6,6.453922836567609,3.9023642877969973,0
smt_24453,21.14246416848692,327.6,6.453743641174273,3.9022564821516017,0
smt_24452,21.142009829658676,327.6,6.453604954108265,3.9021731048356436,0
smt_24451,21.141611654755728,327.6,6.453483411097596,3.902100076039716,0
smt_24450,21.141235549226902,327.6,6.453368604770116,3.9020311307560167,0
smt_6394,21.140824107225544,327.6,6.453243011973608,3.9019557476386346,0
smt_24668,21.13392433578636,327.6,6.4511368546356405,3.900697781894697,0
smt_29393,21.133763390326628,327.6,6.451087725984929,3.9006685777851335,0
smt_19218,21.132410840028488,327.6,6.450674859593556,3.90042340483412,0
smt_6502,21.13194023089687,327.6,6.450531206012474,3.900338204464839,0
smt_24667,21.131694307529873,327.6,6.450456137829631,3.9002937035431984,0
smt_6683,21.131033129572558,327.6,6.450254313056336,3.9001741342906207,0
smt_19220,21.130496681617235,327.6,6.450090562154223,3.900077200703292,0
smt_22844,21.130123623321982,327.6,6.44997668599572,3.900009832660231,0
smt_6687,21.129713719374188,327.6,6.449851562690532,3.8999358504461923,0
smt_24666,21.129406428154002,327.6,6.44975776195177,3.8998804156426847,0
rbt_637356,3.90548212156859,61.95,6.304248783807248,2.963280692913228,0
rbt_631391,5.621643195898199,90.3,6.2255184893667765,4.714741021379504,0
sbt_28279,13.465541298083444,216.3,6.225400507666872,2.788876889949851,0
sbt_20214,13.465533847581709,216.3,6.225397063144571,2.7888769483188227,0
rbt_605855,4.635436966153319,76.65,6.04753681168078,2.8443666015901066,0
rbt_1607255,5.413547952280745,90.3,5.995069714596617,2.8180098764756107,0
rbt_636933,4.507152296833549,76.65,5.880172598608675,2.766598739219221,0
rbt_605910,3.540022825438419,61.95,5.714322559222629,2.6843509438682425,0
rbt_627343,5.125883358135635,90.3,5.676504272575454,2.66731805252278,0
rbt_1607304,3.4434570645608398,61.95,5.558445624795545,2.610591259638823,0
rbt_1607305,4.865762443019353,90.3,5.3884412436537685,2.533192743821079,0
rbt_1607285,3.3044890724398823,61.95,5.334122796513127,2.504722935043739,0
rbt_606103,4.0160747359647235,76.65,5.2394973724262535,2.4627907872973656,0
rbt_3405846,4.003171935290167,76.65,5.222663972981301,2.4557541384341035,0
rbt_606109,3.18805730882479,61.95,5.146178061056965,2.4176562391283514,0
rbt_605825,4.64620435652415,90.3,5.145298290724418,2.4192909133120684,0
sbt_4580,8.35818648389032,163.8,5.102677951092991,2.4007434382121726,0
rbt_1631852,4.598909534117268,90.3,5.092923072112146,2.393745548634629,0
rbt_605993,4.5721789589893085,90.3,5.063321106300452,2.379498431075735,0
rbt_621999,4.538837017207915,90.3,5.026397582733018,2.362539948349831,0
rbt_630753,4.536385795524236,90.3,5.023683051521856,2.362336051126247,0
sbt_6049,8.19853527373651,163.8,5.005210789826929,2.3550944584852433,0
rbt_607384,3.00266907208476,61.95,4.846923441621889,2.2772987162022478,0
rbt_1607278,3.7087687607130344,76.65,4.838576334915896,2.273467276759663,0
rbt_1628760,4.355541167071414,90.3,4.823412145151068,2.266275676815735,0
rbt_3433894,4.331572690156177,90.3,4.796868981346818,2.255130888127874,0
rbt_1607357,3.653968311654431,76.65,4.767081946059271,2.240431885872843,0
sbt_25907,10.293000415134443,216.3,4.758668707875378,1.7585243241086586,0
sbt_21361,10.292993685523118,216.3,4.758665596635746,1.7585244242549989,0
sbt_20771,10.292988311622826,216.3,4.758663112169591,1.758526576047884,0
smt_6110,15.412621748663003,327.6,4.7047074934868744,2.722361267793531,0
smt_6802,14.936773702022673,327.6,4.559454731997152,2.728280566441848,0
smt_24514,14.936237588677155,327.6,4.559291083234784,2.728162192604317,0
smt_24513,14.935680863446374,327.6,4.559121142688148,2.7280393571916126,0
smt_19166,14.935244043537201,327.6,4.5589878032775335,2.7279430415149526,0
smt_6414,14.934817670762497,327.6,4.558857652857904,2.7278490836141702,0
smt_18852,14.934386173492802,327.6,4.558725938184615,2.7277540510301566,0
smt_6403,14.933907426345005,327.6,4.5585798004716125,2.7276486764571755,0
smt_1832,14.933491267091902,327.6,4.558452767732571,2.7275571327984824,0
smt_1831,14.93308585394749,327.6,4.558329015246486,2.727468002164389,0
smt_1829,14.932289980289386,327.6,4.55808607456941,2.7272931696165155,0
smt_1828,14.931713919961666,327.6,4.55791023197853,2.727166741252161,0
smt_24515,14.839138166837373,327.6,4.529651455078563,2.6803273299460844,0
smt_6552,14.838762431360156,327.6,4.529536761709449,2.680243374472642,0
smt_6549,14.838266010304153,327.6,4.529385229030571,2.6801325178959714,0
smt_23959,14.837832560403026,327.6,4.529252918315942,2.680035784325558,0
smt_22744,14.837312603014777,327.6,4.529094201164462,2.679919819506063,0
smt_19175,14.836880185987733,327.6,4.5289622057349606,2.679823440851681,0
smt_19177,14.836387847649162,327.6,4.5288119193068255,2.679713775485302,0
smt_19176,14.835870449570187,327.6,4.528653983385283,2.679598607157861,0
smt_19164,14.835645181678565,327.6,4.528585220292602,2.6795484898314808,0
smt_32311,14.835257578393895,327.6,4.528466904271641,2.67946229227041,0
smt_39119,14.83479269147668,327.6,4.528324997398254,2.6793589682840793,0
smt_32312,14.83477086797354,327.6,4.528318335767259,2.6793541191074066,0
smt_32310,14.834753069616447,327.6,4.528312902813323,2.679350164633528,0
smt_32309,14.834322920611037,327.6,4.528181599698118,2.6792546246026148,0
smt_32314,14.834126267474726,327.6,4.528121571268231,2.6792109651229628,0
smt_32313,14.834111336297402,327.6,4.528117013521795,2.679207650098452,0
smt_6350,14.761182222596632,327.6,4.505855379303001,2.6656086105490178,0
smt_24517,14.759068797481715,327.6,4.505210255641549,2.6653661220376605,0
smt_24520,14.7584212005481,327.6,4.505012576479883,2.665221349346387,0
smt_19116,14.758115432004269,327.6,4.504919240538544,2.665153037825464,0
rbt_605806,3.991259654655711,90.3,4.419999617558927,2.077098409288665,0
rbt_622714,3.9312240079673613,90.3,4.353514958989326,2.0469839778032015,0
rbt_1607258,3.286538892778718,76.65,4.287721973618679,2.01623149351243,0
rbt_627328,3.8380885232461046,90.3,4.25037488731573,2.000242441774701,0
smt_6066,6.961426636146923,163.8,4.2499552113229075,2.3988375302933815,0
smt_6062,6.96104833668559,163.8,4.2497242592708115,2.398813367229889,0
smt_6719,6.960630595293435,163.8,4.24946922789587,2.3987883218526203,0
smt_6176,6.960159632599894,163.8,4.24918170488394,2.398750833057084,0
smt_6144,6.959719753433707,163.8,4.248913158384436,2.3987225155907477,0
smt_6227,6.959253410190537,163.8,4.2486284555497775,2.3986882820288176,0
smt_19063,6.95880282428007,163.8,4.248353372576355,2.398657069940944,0
smt_6092,6.958356216608573,163.8,4.248080718320252,2.398620366437497,0
smt_29474,6.95796929511823,163.8,4.247844502514182,2.3986002308856307,0
smt_29473,6.957536156157168,163.8,4.247580070914022,2.3985723452931107,0
smt_19115,6.95710283335724,163.8,4.247315527080122,2.398534107551897,0
smt_24512,6.956761179548387,163.8,4.247106947221237,2.398474145756756,0
sbt_5830,6.894647908816311,163.8,4.209186757519115,1.9802954464881275,0
smt_37840,6.866798309615797,163.8,4.192184560205004,2.375302165573998,0
smt_6474,6.866489272005448,163.8,4.1919958925552185,2.375284241214677,0
smt_19061,6.866106447534244,163.8,4.1917621779818335,2.3752522947588655,0
smt_29476,6.865732439457537,163.8,4.191533845822672,2.3752309482153655,0
smt_6594,6.865275755180433,163.8,4.191255039792694,2.3751954907201607,0
smt_29475,6.86481528775255,163.8,4.1909739241468555,2.3751532670870015,0
smt_19011,6.864418379376841,163.8,4.190731611341173,2.375129323722722,0
smt_19014,6.8639634063467945,163.8,4.190453850028568,2.3750949166088815,0
rbt_621168,3.1930809933559847,76.65,4.165793859564233,1.9579835022237688,0
rbt_1107330,3.7473534728718962,90.3,4.149893103955589,1.9528772512391503,0
rbt_605815,3.7471148658880677,90.3,4.149628865878259,1.9513718796970512,0
rbt_621171,2.563328580851772,61.95,4.137737822198178,1.9439549719085993,0
rbt_3422597,3.7303892430643035,90.3,4.13110658146656,1.9428230464730538,0
rbt_606127,2.544358421629368,61.95,4.107116096254025,1.929601383355364,0
rbt_635966,2.530246513056661,61.95,4.0843365828194695,1.9191198864424914,0
rbt_1124041,3.680963488540237,90.3,4.076371526622633,1.9170435991673065,0
rbt_605921,3.032862425534704,76.65,3.956767678453625,1.8598808964598161,0
sbt_14007,6.447280234783759,163.8,3.936068519404004,1.8514665796364709,0
sbt_4118,11.268136643072356,286.65,3.930973885599985,1.4096993458063123,0
rbt_627336,3.520008509727323,90.3,3.898126810329261,1.831586280508349,0
rbt_1627321,3.5067143740989697,90.3,3.883404622479479,1.8253125529030687,0
rbt_1607355,3.4923456378697892,90.3,3.867492400741738,1.8177773881424697,0
rbt_605902,2.3953520119136216,61.95,3.8665892040575,1.8169457452092346,0
sbt_35173,4.865762042500259,128.1,3.798409088602856,1.7856929234085366,0
rbt_1607358,2.908043454292729,76.65,3.793924924060964,1.7833692095970541,0
sbt_21952,8.198534379530532,216.3,3.79035338859479,1.7834690954072998,0
sbt_20840,6.172879123392516,163.8,3.7685464733776044,1.7732900023796077,0
sbt_6273,6.166413805940522,163.8,3.7645993931260815,1.7706042243918896,0
rbt_3405838,3.3506542337588776,90.3,3.7105805467983144,1.745933019684758,0
rbt_622273,2.1322016203884906,57.75,3.692124017988728,1.737823895382961,0
rbt_1107341,2.2844392451863396,61.95,3.6875532609948984,1.7346242406768437,0
rbt_638617,2.2752756474673075,61.95,3.6727613357018685,1.7276196115414182,0
rbt_605828,3.3103100871410986,90.3,3.665902643567108,1.7250437545485358,0
rbt_1607292,3.246506523925197,90.3,3.5952453199614585,1.690336795593466,0
smt_6536,10.304193464353862,286.65,3.594695086116819,2.142659523301963,0
smt_6703,10.303631624904177,286.65,3.594499084215656,2.142541625007681,0
smt_6514,10.30308068696352,286.65,3.594306885387588,2.142426204019404,0
smt_6984,10.30299659064924,286.65,3.594277547758326,2.1424086024606095,0
smt_5854,10.302140975802189,286.65,3.5939790601089094,2.1422297695598824,0
smt_5855,10.301499948294078,286.65,3.59375543286031,2.142096085768957,0
smt_5657,10.300974560562274,286.65,3.5935721474140156,2.1419867089264897,0
smt_21743,10.30042067865805,286.65,3.593378921562201,2.141871586449859,0
smt_22741,10.299853160635145,286.65,3.593180938648228,2.141753828428938,0
smt_6098,10.299402292814046,286.65,3.5930236500310646,2.141660418504954,0
smt_19120,10.298879452571612,286.65,3.5928412532955214,2.1415522686742774,0
smt_22740,10.29836197679438,286.65,3.5926607279938536,2.1414454063164423,0
smt_22738,10.285441137777358,286.65,3.588153196503527,2.136319249402188,0
smt_6754,10.284969040300648,286.65,3.5879885017619566,2.136220283193769,0
smt_6567,10.284489136973813,286.65,3.5878210838910913,2.1361198220119557,0
smt_6746,10.284012083219483,286.65,3.5876546601149433,2.1360200987653077,0
smt_6812,10.283543268122273,286.65,3.5874911104560523,2.1359222353325924,0
rbt_1635060,2.2030246280628627,61.95,3.556133378632546,1.6720790486065609,0
rbt_1626490,3.211036933516421,90.3,3.5559655963637,2.6931459025449676,0
sbt_37156,5.803876376865032,163.8,3.543270071346173,1.6648125060847345,0
rbt_605867,3.1931358368762894,90.3,3.5361415690767326,1.6627307063376466,0
sbt_4615,5.727701187325346,163.8,3.4967650716271956,1.6460735365087766,0
sbt_3373,5.727699968190873,163.8,3.496764327344855,1.6460727347865858,0
sbt_20793,5.72769885061497,163.8,3.496763645064084,1.646072005388304,0
sbt_4010,5.727697120767425,163.8,3.496762588991102,1.646070886359408,0
sbt_28804,5.727695552539308,163.8,3.496761631586879,1.6460698818596489,0
rbt_605812,3.1187955222690946,90.3,3.4538156392791746,1.6253087743084953,0
rbt_632613,3.11557203532648,90.3,3.4502458862973207,1.622701348422557,0
rbt_622713,3.099284201254136,90.3,3.432208417778667,1.612785377845104,0
rbt_606120,2.1161393282447762,61.95,3.4158826928890655,1.6045334564672418,0
sbt_37537,7.332495051680812,216.3,3.3899653498293167,1.292868055599583,0
sbt_37545,7.332486388659296,216.3,3.3899613447338397,1.2928686499761257,0
sbt_37546,7.332469635033646,216.3,3.389953599183378,1.292867409337126,0
sbt_26269,7.329785857139281,216.3,3.3887128327042446,1.5933833995230184,0
sbt_37539,7.3254149526494965,216.3,3.386692072422328,1.753628760951573,0
sbt_37538,7.325409413961845,216.3,3.3866895117715416,1.753629286692808,0
rbt_1132019,3.018220191146303,90.3,3.3424365350457395,1.571505166148242,0
rbt_605863,3.0036044252138536,90.3,3.326250747745131,1.5643366923698085,0
rbt_634166,2.523779965040273,76.65,3.292602694116468,1.5472255103792156,0
rbt_1138614,2.0264991826634997,61.95,3.2711851213292973,1.5380055655557656,0
rbt_605803,2.9168163320922544,90.3,3.2301399026492295,1.5183814766445165,0
rbt_605834,2.896740640242105,90.3,3.2079076857609135,1.5101043806482508,0
smt_29484,5.240688453520305,163.8,3.199443500317647,1.585481683941803,0
smt_22951,5.24067493489105,163.8,3.199435247186233,1.585473394767391,0
smt_19381,5.23933548787301,163.8,3.198617513963986,1.5846534089884095,0
smt_18804,5.238638233062889,163.8,3.198191839476733,1.5842275658045297,0
smt_19380,5.23783925746326,163.8,3.1977040643853845,1.5837404474306143,0
rbt_605904,1.980735826917875,61.95,3.197313683483252,1.5013494130721012,0
smt_5349,5.23719916229184,163.8,3.1973132858924536,1.583350852863788,0
smt_18803,5.236549066866593,163.8,3.1969164022384575,1.5829557731343131,0
smt_13454,5.23588530529604,163.8,3.196511175394407,1.5825530160630479,0
smt_19377,5.235096345731558,163.8,3.1960295150986306,1.582075120217793,0
smt_29411,5.234104562424186,163.8,3.195424030783996,1.581475651589245,0
smt_8954,5.233495257173415,163.8,3.195052049556419,1.5811080785432827,0
smt_5584,5.232785038987394,163.8,3.194618460920265,1.5806803157816225,0
rbt_605810,2.4436585402790487,76.65,3.188073764225764,1.498355207988575,0
rbt_605864,2.871831025196011,90.3,3.1803222870387717,1.4957162192238902,0
smt_37837,6.867318052368425,216.3,3.174904323794926,1.798806460105772,0
smt_37841,6.866994788194425,216.3,3.1747548720270107,1.7987763149768272,0
rbt_609682,2.4211708022678287,76.65,3.1587355541654643,1.4858998964121286,0
rbt_622703,1.9426968127064455,61.95,3.1359109163945846,2.3754302097130084,0
rbt_605835,2.8309613864669427,90.3,3.1350624434849865,1.475797413602144,0
smt_7052,5.133655823351294,163.8,3.134100014255979,1.7176445952823174,0
sbt_14006,5.124339234007209,163.8,3.128412230773632,1.4710593143514277,0
sbt_27416,6.672108922318269,216.3,3.0846550727315156,1.4505362957287182,0
sbt_15213,6.672108876232057,216.3,3.084655051424899,1.4505362857837172,0
rbt_606128,2.351346155779526,76.65,3.0676401249569807,1.44161398028033,0
rbt_1607257,2.745160096825556,90.3,3.040044404015012,1.428955832960934,0
rbt_607385,2.7400083538327302,90.3,3.0343392622732344,1.42709788498869,0
rbt_3405845,2.731148425557174,90.3,3.024527603053349,1.4236819571727466,0
rbt_633056,2.7273968154184027,90.3,3.020372996033669,1.4199796588983735,0
rbt_606141,2.7247034322229684,90.3,3.0173902903908845,1.420294066457034,0
rbt_623015,2.7171837118910767,90.3,3.009062803866087,2.2790901532661256,0
sbt_34389,3.8380872608800534,128.1,2.996164918719792,2.3052304578994947,0
rbt_605982,2.662281074740029,90.3,2.948262541240342,1.3869840023565894,0
rbt_1606000,2.6607912543049514,90.3,2.946612684723091,1.3852795612794162,0
smt_37855,6.366521509549353,216.3,2.9433756401060345,1.5563520648448363,0
smt_37854,6.366188680388241,216.3,2.9432217662451414,1.5563771267832676,0
smt_37853,6.365882461310021,216.3,2.9430801947804075,1.5564076115697103,0
smt_37852,6.365568207137487,216.3,2.942934908524035,1.5564333755144162,0
smt_37851,6.365272271508499,216.3,2.942798091312297,1.5564643484815672,0
smt_37850,6.3649645128050425,216.3,2.942655808046714,1.5564938655213518,0
smt_37849,6.3646580685787475,216.3,2.9425141324913304,1.5565262932891708,0
smt_37848,6.364340739183693,216.3,2.9423674244954663,1.5565574180727042,0
smt_37847,6.36402466538444,216.3,2.9422212969877206,1.5565678949398218,0
smt_37846,6.363802550535634,216.3,2.942118608661874,1.5566085360049524,0
smt_37845,6.363499423526462,216.3,2.9419784667251325,1.5566439089391961,0
smt_38000,6.363176382290549,216.3,2.9418291180261433,1.5566658885763072,0
smt_38002,6.362902851077509,216.3,2.941702658843046,1.5566332744262923,0
smt_38001,6.362895762041289,216.3,2.94169938143379,1.5566351196030437,0
smt_37843,6.362884994230734,216.3,2.941694403250455,1.5567016940961176,0
smt_37842,6.362587160150883,216.3,2.9415567083452996,1.55669996013428,0
smt_37838,6.362433258421792,216.3,2.9414855563669864,1.5567375743265588,0
rbt_1629639,2.648599009916245,90.3,2.9331107529526523,1.3780487016084237,0
sbt_3952,4.790652194819331,163.8,2.924696089633291,1.3762627781477466,0
sbt_4120,4.790650761705328,163.8,2.9246952147163174,1.3762618542947214,0
sbt_20855,4.790649366469454,163.8,2.9246943629239643,1.3762609611546333,0
sbt_20854,4.7906480429544285,163.8,2.9246935549172335,1.3762601194577828,0
rbt_635963,1.8101966219678178,61.95,2.9220284454686323,1.372534574672523,0
smt_25186,4.734780597454753,163.8,2.8905864453325716,1.589525371765616,0
rbt_626481,2.6038791770133414,90.3,2.8835871284754613,1.3553840926552467,0
rbt_1607306,2.1959194878589474,76.65,2.8648656071219145,1.3469795751771183,0
rbt_605901,2.5782911207557273,90.3,2.855250410582201,1.3416161950903591,0
rbt_605820,2.1854052635354058,76.65,2.8511484194851997,1.3409095360572285,0
rbt_3405847,2.5733132018575366,90.3,2.8497377650692544,1.3412655511703475,0
rbt_1607289,2.1704060829074856,76.65,2.8315800168395113,1.330626797808992,0
sbt_34000,6.124682481680876,216.3,2.831568415016586,1.3308636584851539,0
sbt_20828,4.595981985570779,163.8,2.8058498080407683,1.3187770209634782,0
rbt_1609690,2.4954559452111424,90.3,2.7635171043312763,1.2984637735201445,0
sbt_34382,3.5140981040825774,128.1,2.7432459828903806,1.2891177352787606,0
rbt_1625170,2.475347133105801,90.3,2.741248209419491,1.288102528290911,0
rbt_605821,3.499887189817593,128.1,2.7321523730035855,1.2837098901831066,0
sbt_35105,3.492345272548147,128.1,2.7262648497643616,1.2813837668317212,0
smt_37856,5.8720016093188265,216.3,2.7147487791580334,1.4614874871530628,0
smt_15243,4.444388413073847,163.8,2.7133018394834227,1.5637749047989413,0
smt_26472,4.4439840494440555,163.8,2.7130549752405706,1.5637775951916684,0
smt_14780,4.443525988787326,163.8,2.712775328929991,1.563771668392935,0
smt_14754,4.443069174578762,163.8,2.7124964435767773,1.563766593782508,0
smt_14729,4.442614903130783,163.8,2.7122191105804534,1.5680402445092578,0
smt_21229,4.442154019629444,163.8,2.7119377409215164,1.5680308312667999,0
smt_26474,4.441719964206776,163.8,2.7116727498209863,1.5680185115262104,0
smt_22453,4.441337327931019,163.8,2.711439150141037,1.5680287989472703,0
smt_14544,4.440877962650711,163.8,2.711158707356966,1.5680266743339972,0
smt_14113,4.440419448472578,163.8,2.710878784171293,1.5680334068951918,0
smt_22508,4.4399167270928315,163.8,2.710571872462046,1.5680233484932247,0
smt_14452,4.439473796793393,163.8,2.710301463243829,1.5680120659253234,0
smt_30311,4.439102308056022,163.8,2.71007466914287,1.5680292226669508,0
smt_26478,4.4386444344828755,163.8,2.709795137046932,1.5680180379421262,0
rbt_605988,2.4439631632774104,90.3,2.7064929825884945,1.2736182905669926,0
smt_6512,7.685022305160539,286.65,2.680977605149325,1.6144859806307832,0
smt_6425,7.68465307617537,286.65,2.6808487968516905,1.6144243173901003,0
smt_6930,7.684087550330447,286.65,2.6806515089239307,1.6143250775858335,0
rbt_605804,1.6564797371039361,61.95,2.673897880716604,1.256587225714582,0
sbt_6048,4.331534628068458,163.8,2.6444045348403287,1.2443353790852392,0
smt_856,4.326392980179957,163.8,2.641265555665419,1.5303333440714642,0
smt_15622,4.32589093857541,163.8,2.6409590589593464,1.530295426378825,0
smt_23196,4.325612051552586,163.8,2.6407887982616516,1.5303001347285627,0
smt_15581,4.325313174282398,163.8,2.6406063335057373,1.5303062814473147,0
smt_15568,4.3249897729010724,163.8,2.6404088967650017,1.5303069469878876,0
rbt_605829,2.3817338464656155,90.3,2.6375790104824093,1.239928719664595,0
smt_22686,7.546128922450067,286.65,2.632523608041189,1.6549742936895608,0
smt_6239,7.545693163476981,286.65,2.632371590258846,1.6548963685223834,0
smt_23961,7.545267887079111,286.65,2.6322232294013994,1.6548207143608356,0
smt_29407,7.544835347356088,286.65,2.6320723346785586,1.6547432682510268,0
smt_6278,7.544448005219082,286.65,2.6319372074722076,1.6546754311954095,0
smt_6630,7.543996459539738,286.65,2.6317796823791166,1.6545955901833709,0
smt_19070,7.543542840263407,286.65,2.6316214338961825,1.654515550506378,0
sbt_15045,5.691962573459494,216.3,2.6315129789456746,1.2377061318081743,0
smt_6639,7.543089566710706,286.65,2.631463306021527,1.654435359538301,0
smt_19117,7.542666530601976,286.65,2.6313157267057306,1.654360697024359,0
smt_21514,7.525460319748022,286.65,2.625313211145307,1.649244390623011,0
smt_5615,7.525021282786242,286.65,2.6251600498120506,1.6491628474017608,0
smt_18742,7.524679416359821,286.65,2.6250407871480275,1.6491022233893806,0
smt_6270,7.524142584578552,286.65,2.6248535093593417,1.6490029035813505,0
smt_5967,7.5237251191340215,286.65,2.6247078734114853,1.6489276114179479,0
smt_5772,7.523232738380527,286.65,2.6245361026968523,1.6488380326784222,0
smt_6158,7.522745850365376,286.65,2.624366248165141,1.648749010769505,0
smt_6263,7.522324255400604,286.65,2.624219171603211,1.6486738761962565,0
smt_6384,7.5218014998901,286.65,2.6240368044270364,1.6485794183038267,0
smt_22684,7.521290097411598,286.65,2.62385839784113,1.648486277522671,0
smt_22685,7.520872903779047,286.65,2.623712856716919,1.6484116141458898,0
smt_29447,7.52043557397544,286.65,2.6235602909385802,1.6483336582719847,0
smt_19065,7.5199671463793285,286.65,2.623396876462351,1.648250721516421,0
smt_24385,7.5194379515133525,286.65,2.6232122628687784,1.6481562625930841,0
rbt_1607316,2.3555074733470938,90.3,2.6085354079148324,1.976543576412378,0
rbt_1107342,1.615708481503949,61.95,2.6080847159062936,1.2262304969232842,0
smt_29448,7.470507521248046,286.65,2.606142515697906,1.636594409879134,0
smt_6824,7.470084190763385,286.65,2.6059948336868604,1.6365133635910636,0
smt_6855,7.469630346129949,286.65,2.605836506586412,1.6364270240087828,0
smt_19062,7.469100442420164,286.65,2.6056516457073657,1.6363248746651937,0
smt_7054,7.468679327468147,286.65,2.605504736601482,1.6362446533514727,0
smt_6446,7.468249132236717,286.65,2.6053546597720976,1.6361628906331795,0
smt_39006,7.467808445526336,286.65,2.605200922911682,1.6360788392477792,0
smt_39008,7.4674102988419016,286.65,2.6050620264580155,1.6360000218102713,0
smt_39007,7.4673935192485565,286.65,2.605056172771169,1.6360000943714619,0
smt_6122,7.467011485320218,286.65,2.6049228973731795,1.6359287757475396,0
smt_18741,7.466529463665673,286.65,2.604754740507823,1.6358375191956611,0
smt_5938,7.466082964108165,286.65,2.604598975792139,1.6357541559379287,0
smt_5946,7.465567469051529,286.65,2.60441914147969,1.6356569663652036,0
smt_37925,5.611933336142855,216.3,2.5945137938709455,1.4027489776572508,0
smt_37924,5.611784736070699,216.3,2.5944450929591762,1.402808238064437,0
smt_37923,5.611466815522847,216.3,2.5942981116610477,1.402846224087899,0
smt_37864,5.6111535380349,216.3,2.5941532769463245,1.4028446783789557,0
smt_37863,5.611005161087362,216.3,2.5940846791897187,1.4028631108106449,0
smt_37862,5.610856967997791,216.3,2.594016166434485,1.4029054178048987,0
smt_37861,5.6106122486800825,216.3,2.5939030275913466,1.4029490133073967,0
smt_37860,5.610316085903566,216.3,2.5937661053645704,1.4029907098831078,0
smt_37859,5.610003899299404,216.3,2.5936217749881663,1.4030109756533065,0
smt_37858,5.609771369303815,216.3,2.5935142715227992,1.4030632850439568,0
smt_37831,5.609449953990566,216.3,2.5933656745217597,1.4030629563467107,0
smt_37898,5.595454003864786,216.3,2.586895054953669,1.3935998451849043,0
smt_37897,5.595095782051382,216.3,2.586729441540167,1.3936169609310436,0
smt_37896,5.59478463752954,216.3,2.586585592940148,1.3936449621261493,0
smt_37895,5.594451002822148,216.3,2.5864313466584132,1.393669375697759,0
smt_37894,5.594122813682636,216.3,2.5862796179762535,1.39369118850174,0
smt_37893,5.593812505825834,216.3,2.586136156183927,1.3937183781328004,0
smt_37892,5.593488698959833,216.3,2.5859864535181845,1.3937418249951994,0
smt_37891,5.59317648040906,216.3,2.585842108372196,1.39377116136949,0
smt_37890,5.592844587047315,216.3,2.5856886671508623,1.3938227019601976,0
smt_37889,5.59239631032845,216.3,2.585481419476861,1.393813394283753,0
smt_37888,5.592171113969009,216.3,2.585377306504396,1.393830340752447,0
smt_37887,5.591955570281391,216.3,2.5852776561633797,1.3938735667402975,0
smt_37886,5.5916221132301835,216.3,2.585123492015804,1.3938997480804038,0
smt_37885,5.591300932617989,216.3,2.584975003521955,1.393928511100012,0
smt_37884,5.590976582207797,216.3,2.5848250495643996,1.3939574572571611,0
smt_37883,5.590651255400738,216.3,2.5846746441982145,1.3939887352475602,0
smt_37882,5.590316272295111,216.3,2.584519774523861,1.3940167796936567,0
smt_37881,5.589992491573521,216.3,2.5843700839452244,1.3940476219372906,0
smt_37880,5.589663998088082,216.3,2.584218214557597,1.3940739410481695,0
smt_37879,5.5893552927550445,216.3,2.5840754936454204,1.3941099882644228,0
smt_37878,5.5890150329078825,216.3,2.5839181844234314,1.3941380474902747,0
smt_37877,5.588695080068867,216.3,2.5837702635547233,1.3941715720336907,0
smt_37876,5.5883635101044264,216.3,2.583616971846707,1.3942043626661345,0
smt_37875,5.588030539686684,216.3,2.5834630326799277,1.3942376506777798,0
smt_37874,5.587696364061082,216.3,2.583308536320426,1.394269014265248,0
smt_37873,5.58737190406272,216.3,2.583158531697975,1.3942966973985944,0
smt_37945,5.587070800105451,216.3,2.5830193250603104,1.3943080240988317,0
smt_37944,5.586856210471908,216.3,2.5829201157983857,1.394338492812267,0
smt_37943,5.586605014414349,216.3,2.58280398262337,1.394374737922898,0
smt_37942,5.586309669955457,216.3,2.582667438721894,1.3944052788302024,0
smt_37941,5.586016906643068,216.3,2.582532088138265,1.3944358099610257,0
smt_37940,5.585726944263299,216.3,2.5823980324841878,1.394468384422437,0
smt_37939,5.585430961505542,216.3,2.582261193483838,1.3945019767217526,0
smt_37938,5.585128825968273,216.3,2.5821215099252304,1.3945359582283816,0
smt_37937,5.584823263138469,216.3,2.581980241857822,1.394568622018264,0
smt_37936,5.584523034946387,216.3,2.5818414401046637,1.394602285692087,0
smt_37935,5.584222761310146,216.3,2.5817026173417226,1.3946295086637097,0
smt_37934,5.583951232309739,216.3,2.581577083823273,1.3946664569403382,0
smt_37933,5.583654587656424,216.3,2.5814399388148055,1.3947010513787772,0
smt_37932,5.583356359306449,216.3,2.5813020616303506,1.394735790996647,0
smt_23147,4.223029758206539,163.8,2.578162245547337,1.5049985663759893,0
smt_16038,4.222744341597962,163.8,2.577987998533554,1.5050975565804563,0
sbt_22669,5.551414529074927,216.3,2.566534687505745,1.2065650420409477,0
rbt_3405987,1.5897382648380785,61.95,2.5661634622083587,1.2079812130122258,0
rbt_1132012,2.3074381723784083,90.3,2.5553025164766425,1.200941387761494,0
smt_37986,5.526230870932447,216.3,2.5548917572503225,1.4137490321757353,0
smt_37987,5.525998917428921,216.3,2.554784520309256,1.4137607973388417,0
smt_37993,5.525702640993327,216.3,2.554647545535518,1.4137431592637926,0
smt_37920,5.525554540985826,216.3,2.5545790758140665,1.413775382390427,0
smt_37919,5.525195134213305,216.3,2.5544129145692582,1.4137793771207994,0
smt_37918,5.5248424355382735,216.3,2.554249854617787,1.4137823891786256,0
smt_37917,5.524505137806358,216.3,2.5540939148434383,1.4137892551726876,0
smt_37916,5.524157710887767,216.3,2.55393329213489,1.4137944644616782,0
smt_37915,5.523815109191437,216.3,2.5537749002272014,1.4137875749994242,0
smt_37914,5.5235606682219345,216.3,2.5536572668617357,1.4138040912450276,0
smt_37913,5.52322763231901,216.3,2.553503297419792,1.4138133402289264,0
smt_37912,5.522877276066828,216.3,2.5533413204192454,1.413819043591537,0
smt_40685,5.522538057612751,216.3,2.5531844926549936,1.4138236292545157,0
smt_37911,5.52221683283341,216.3,2.553035983741752,1.4137851318788905,0
smt_37910,5.5221980076504,216.3,2.553027280467129,1.413835287478416,0
smt_37909,5.521853372170246,216.3,2.552867948298773,1.4138426137900177,0
smt_37908,5.5215156313137195,216.3,2.5527118036586773,1.413853569063076,0
smt_40683,5.521162579118552,216.3,2.5525485802674766,1.4138590521830248,0
smt_37906,5.520834513966508,216.3,2.5523969089073084,1.4138699496011047,0
smt_37905,5.520494680073731,216.3,2.552239796612913,1.4138759892947013,0
rbt_1607268,1.9562325359992025,76.65,2.552162473580173,1.1993186476484938,0
smt_37904,5.520178401935294,216.3,2.5520935746349025,1.4138855188256765,0
smt_37903,5.5198612695820355,216.3,2.5519469577355687,1.413882993078466,0
sbt_35588,5.506524010726309,216.3,2.5457808648757787,1.1963937359936245,0
rbt_605823,2.297152643376162,90.3,2.5439121189104785,1.1962283707237304,0
smt_13546,4.1664006834980425,163.8,2.5435901608657154,1.4881280720662626,0
smt_21225,4.1661174985696485,163.8,2.5434172762940466,1.4881634003409347,0
smt_13930,4.1656082653032485,163.8,2.543106389074022,1.4881598257082551,0
smt_21226,4.165103020461479,163.8,2.5427979367896696,1.4881378969711996,0
smt_13280,4.16471668034411,163.8,2.542562075912155,1.4881342910528634,0
smt_14437,4.164349058056156,163.8,2.542337642280925,1.4881352043288327,0
smt_13955,4.163978565268653,163.8,2.542111456207969,1.4881372197996405,0
smt_26469,4.16360339345292,163.8,2.541882413585421,1.4881307154013885,0
smt_20808,4.163275653699036,163.8,2.541682328265589,1.4881358041390866,0
smt_23095,4.16293260723615,163.8,2.5414728981905674,1.4881079445745167,0
smt_20807,4.162759668133311,163.8,2.541367318762705,1.4881446694506728,0
smt_13717,4.162395183067532,163.8,2.5411448004075283,1.4881353530662924,0
smt_37963,5.477924021878034,216.3,2.532558493702281,1.3923280999185523,0
smt_37983,5.477481792379012,216.3,2.5323540417841017,1.3923295666402875,0
smt_37984,5.477032490935131,216.3,2.532146320358359,1.392329675273758,0
smt_37985,5.476590650393997,216.3,2.5319420482635215,1.39233035244058,0
smt_37947,5.476156164688787,216.3,2.5317411764626843,1.3923274338320095,0
smt_37948,5.475758870817643,216.3,2.531557499222211,1.3923314333505374,0
sbt_21281,4.123007239302162,163.8,2.517098436692407,1.1826495509204353,0
smt_14797,4.116637199172911,163.8,2.5132095233045852,1.4716580092995413,0
smt_23041,4.116272176552182,163.8,2.5129866767717837,1.4716517401780236,0
smt_14823,4.1159024507751205,163.8,2.5127609589591695,1.4716460791849226,0
smt_13752,4.11552756597066,163.8,2.512532091557179,1.4715816066128264,0
smt_23225,4.098737699859905,163.8,2.50228186804634,1.4650764789890804,0
smt_21220,4.098322733373116,163.8,2.502028530752818,1.4650649673637497,0
smt_14845,4.097889462878536,163.8,2.5017640188513646,1.4650534558198898,0
smt_26425,4.097441173645422,163.8,2.501490338000868,1.465039977248006,0
smt_20810,4.096995989011841,163.8,2.5012185525102812,1.4650175028179515,0
smt_26429,4.096621302523396,163.8,2.5009898061803395,1.4650078862351108,0
smt_26430,4.096249877090547,163.8,2.5007630507268295,1.4649992301268415,0
smt_21222,4.0796712501629555,163.8,2.490641788866273,1.4589967147313223,0
smt_14301,4.0793811548582894,163.8,2.490464685505671,1.4589959025408599,0
smt_23277,4.07901484568601,163.8,2.4902410535323627,1.45897783774274,0
smt_26427,4.0786704983506805,163.8,2.4900308292739197,1.4589675616490574,0
smt_20812,4.07830780241617,163.8,2.4898094031844744,1.4589546633588364,0
smt_15154,4.077944532114206,163.8,2.4895876264433485,1.4589391769211388,0
smt_14674,4.077602150954778,163.8,2.4893786025364943,1.4589391642777194,0
rbt_605989,2.2442176323449408,90.3,2.485290844235815,1.1680189090830606,0
rbt_1121173,2.240611434753846,90.3,2.481297269937814,1.167033152997988,0
rbt_605807,2.2348606871368726,90.3,2.474928778667633,1.1642813813669954,0
rbt_606130,1.8821999428855456,76.65,2.4555772248996024,1.1538167985421337,0
sbt_3491,4.016071474593105,163.8,2.4518140870531777,1.1524577598454717,0
rbt_637399,1.5099826395114064,61.95,2.4374215327060638,1.145358429945523,0
sbt_21191,3.9837962813826016,163.8,2.43211006189414,1.1434140489572473,0
sbt_26310,3.931223598445174,163.8,2.400014406865185,1.1284652707194947,0
rbt_637705,2.154610693037704,90.3,2.386058353308642,1.80738692409113,0
rbt_1105833,2.147964267545481,90.3,2.3786979707037443,1.1181057983580502,0
smt_29426,5.13437764961567,216.3,2.373729842633227,1.3010645786794377,0
rbt_1607276,2.139018977303187,90.3,2.3687917799592326,1.113021153756587,0
smt_37960,5.071445366598004,216.3,2.3446349360138714,1.3203606324590094,0
smt_37962,5.071066418911716,216.3,2.344459740597187,1.3203638439293173,0
smt_37981,5.054646379533693,216.3,2.3368684140238987,1.2984316043941855,0
smt_37951,5.05429096060231,216.3,2.3367040964411974,1.2984342489409622,0
smt_37952,5.053935049052512,216.3,2.3365395511107314,1.2984488653104584,0
smt_37953,5.0534970884762656,216.3,2.336337072804561,1.2984509392168841,0
smt_37954,5.05307535292051,216.3,2.3361420956636665,1.3004847522086702,0
smt_37955,5.052617886110708,216.3,2.335930599219005,1.3004773076041565,0
smt_37956,5.052250204882181,216.3,2.335760612520657,1.300491888247136,0
smt_37957,5.051815485812945,216.3,2.335559632830765,1.3004979129540313,0
smt_37958,5.051383419734063,216.3,2.3353598796736303,1.3005061203792259,0
smt_37959,5.05094329665407,216.3,2.3351564015968886,1.3005126879101245,0
rbt_1607319,2.105912435206652,90.3,2.332128942643026,1.6565387149025022,0
rbt_622709,2.1033281757405278,90.3,2.3292670827691335,1.0950393167043553,0
rbt_1607328,2.1014042058123983,90.3,2.3271364405452917,1.094213215175063,0
rbt_607366,2.1002162784326455,90.3,2.3258209063484445,1.0929637063134396,0
sbt_21953,3.747353725692567,163.8,2.287761737297049,1.0765861944952928,0
sbt_21849,3.747353665262709,163.8,2.287761700404584,1.076586176915218,0
sbt_21968,3.747353592061462,163.8,2.287761655715178,1.076586155667482,0
smt_37979,4.942222484121366,216.3,2.2848925030611955,1.2856641942395017,0
smt_37980,4.941840932809391,216.3,2.2847161039340684,1.285643605321047,0
rbt_1633892,2.0296868361194975,90.3,2.247715211649499,1.0563858373757649,0
sbt_21137,3.68096090362688,163.8,2.247228878893089,1.0568301111292961,0
rbt_1134165,2.0251172729945104,90.3,2.242654787369336,1.0552159974049091,0
rbt_1131858,2.023845611818519,90.3,2.2412465247159683,1.0542590399265952,0
smt_6074,6.419265766155783,286.65,2.2394089538307282,1.335886117579249,0
smt_6082,6.418819297740393,286.65,2.239253199979206,1.3358221061980944,0
smt_6649,6.418379365184457,286.65,2.239099726211218,1.335759175571928,0
smt_29408,6.417949300593636,286.65,2.2389496949567893,1.3356982679118616,0
smt_6422,6.417518391643126,286.65,2.2387993691411574,1.3356375415956954,0
smt_22683,6.417085339561028,286.65,2.238648295678015,1.335576642782673,0
smt_22793,6.400105987940661,286.65,2.2327249216607923,1.32306406368806,0
smt_22790,6.399653048017275,286.65,2.2325669101752226,1.3229944680927066,0
smt_29449,6.399380343908731,286.65,2.2324717753039356,1.323783320869089,0
smt_6370,6.399215872464986,286.65,2.232414398208612,1.3229280127804914,0
smt_6401,6.39894453668848,286.65,2.2323197406902078,1.323719364348164,0
smt_29409,6.398776490762707,286.65,2.23226111661005,1.322861989017473,0
smt_21348,6.398506328317953,286.65,2.232166868417217,1.3236690818584955,0
smt_5650,6.398316239361169,286.65,2.2321005544605512,1.3227923452399146,0
smt_6094,6.397861935857062,286.65,2.2319420672796313,1.3227210766582485,0
smt_29477,6.39751313555909,286.65,2.231820385682571,1.3226709883590122,0
smt_29450,6.397086923480445,286.65,2.2316716984058766,1.3226085771454612,0
smt_6231,6.396618409868452,286.65,2.231508253922363,1.3225380801410591,0
smt_6340,6.396179426064692,286.65,2.2313551111336793,1.322473490683903,0
rbt_1607353,2.0060390305956686,90.3,2.2215271656651923,1.0440733074206119,0
sbt_34390,3.626218307775655,163.8,2.213808490705528,1.6769466918797864,0
smt_6581,6.338077142613925,286.65,2.2110856942661523,1.2991302644233693,0
smt_6701,6.337634962233352,286.65,2.2109314363277,1.2990685223042266,0
smt_21959,6.3371494569031,286.65,2.2107620641559746,1.2989974557179709,0
smt_19219,6.329171934257794,286.65,2.2079790456158364,1.2889353574406315,0
smt_5952,6.328701813843485,286.65,2.2078150405872963,1.288859421630675,0
smt_29478,6.328211628858231,286.65,2.207644035882865,1.2887788491353487,0
smt_22841,6.327779785707577,286.65,2.2074933841645135,1.2887099931354247,0
smt_6660,6.327313373360122,286.65,2.2073306727228754,1.2886346671307254,0
smt_22845,6.291537366956377,286.65,2.194849944865298,1.2675985313109612,0
smt_18913,6.290991565270716,286.65,2.1946595378582647,1.2675087933058495,0
smt_5786,6.290462661719298,286.65,2.194475025891958,1.2674210211461603,0
smt_29479,6.290007404388603,286.65,2.1943162059614876,1.267347289835553,0
smt_19224,6.289539604016411,286.65,2.1941530102970215,1.2672720401613053,0
smt_25183,4.734148255928835,216.3,2.1886954488806447,1.2034269150929615,0
smt_25117,4.733502656177577,216.3,2.1883969746544505,1.2031297989868561,0
smt_25116,4.732839108553753,216.3,2.188090202752544,1.2028247606883602,0
smt_25115,4.732320017319829,216.3,2.1878502160517006,1.202586369808387,0
smt_25114,4.731864488371297,216.3,2.1876396155207103,1.2023773435195937,0
smt_25113,4.73133294707952,216.3,2.1873938728985296,1.2021336439420076,0
smt_25112,4.730771540143289,216.3,2.187134322766199,1.2018764933325932,0
smt_25111,4.730403773507838,216.3,2.1869642965824494,1.2017081741567288,0
smt_25110,4.730138159654658,216.3,2.186841497759897,1.201586674722625,0
smt_25109,4.729437670842506,216.3,2.186517647176378,1.2012665198389514,0
smt_25108,4.7289044274853085,216.3,2.186271117653864,1.2010230656699954,0
smt_25107,4.728186176023917,216.3,2.1859390550272386,1.2006955048700358,0
smt_25106,4.727559163727378,216.3,2.1856491741689217,1.2004098925668507,0
smt_25105,4.726917845444384,216.3,2.1853526793547773,1.2001180915179648,0
smt_29427,4.726276310676848,216.3,2.185056084455316,1.1998265249228766,0
smt_6407,4.7250067612838995,216.3,2.1844691452999996,1.1992505229815342,0
smt_22794,4.724375014897644,216.3,2.184177075773298,1.198964386891045,0
smt_6477,4.72367790848866,216.3,2.183854788945289,1.1986490279867648,0
smt_6641,4.722772435220595,216.3,2.1834361697737377,1.198240006332057,0
smt_6157,4.722136765166452,216.3,2.1831422862535605,1.1979532667286688,0
smt_6694,4.721418949900712,216.3,2.1828104252892793,1.197629877494638,0
sbt_20633,3.4718038104436375,163.8,2.119538345814186,1.3988125723460973,0
smt_37973,4.581802633915147,216.3,2.1182628913153705,1.2198356599731897,0
smt_37991,4.5816388307256615,216.3,2.1181871616854653,1.219847247549124,0
smt_37974,4.581407987398589,216.3,2.1180804380021216,1.2198737297323652,0
smt_37990,4.581014545659119,216.3,2.1178985416824405,1.219875217946208,0
smt_37975,4.580650795420301,216.3,2.1177303723625984,1.219885448711638,0
smt_37976,4.5802572944028475,216.3,2.11754844863747,1.2198915605550988,0
smt_37977,4.579869368073099,216.3,2.117369102206703,1.219896146393717,0
smt_37978,4.579500315356332,216.3,2.1171984814407447,1.2199097980993172,0
smt_37970,4.539710365657457,216.3,2.09880275804783,1.2102276101964282,0
smt_37971,4.539194937614434,216.3,2.0985644649165205,1.2101973282378038,0
smt_37972,4.538928588419099,216.3,2.0984413261299575,1.2102154462846253,0
sbt_4619,4.538836829193312,216.3,2.0983989039266353,0.986302996958071,0
smt_37989,4.538548529245082,216.3,2.098265616849321,1.2102978360238612,0
smt_37964,4.438267383413723,216.3,2.051903552202368,1.187408263325022,0
smt_37965,4.436924115558743,216.3,2.051282531464976,1.1874192384106879,0
smt_37994,4.436748856670983,216.3,2.0512015056268993,1.1873970487219192,0
smt_37995,4.436744719805087,216.3,2.051199593067539,1.1873973924899655,0
smt_37996,4.436739725101666,216.3,2.0511972839120043,1.1874399073723396,0
smt_37966,4.436436180473407,216.3,2.051056948901252,1.1874539828976132,0
smt_37967,4.436065201441774,216.3,2.050885437559766,1.1874612810085854,0
smt_37968,4.43568493649791,216.3,2.0507096331474384,1.1874669320936595,0
smt_37969,4.435311841254171,216.3,2.0505371434369724,1.1874613399984435,0
rbt_606110,1.2614505857590192,61.95,2.036239847875737,0.9567024037938489,0
rbt_1607284,1.8320111747739964,90.3,2.0288052876788445,0.953733349570543,0
rbt_1607302,1.2415967830791725,61.95,2.004191740240795,0.9416293215399564,0
rbt_607382,1.7910437834356325,90.3,1.9834371909586188,0.9324463357032128,0
rbt_1607273,1.5190587368681243,76.65,1.9818117897822884,0.9312020749039314,0
sbt_26614,3.2110366552842495,162.75,1.9729871921869429,1.4942614244624774,0
sbt_26512,3.2110350602624784,162.75,1.9729862121428439,1.4942604333901057,0
sbt_16246,3.2110344791768095,162.75,1.972985855100958,1.494260072869128,0
sbt_5828,3.2110317301403306,163.8,1.9603368315875034,1.4846797912270555,0
sbt_3790,3.1880566652243867,163.8,1.9463105404300283,0.9143695921955687,0
rbt_1137150,1.1986675679253984,61.95,1.9348951863202557,0.9095780609942512,0
rbt_3405843,1.742355279847706,90.3,1.9295185823341152,0.9072846810068703,0
rbt_1607288,1.464396310682699,76.65,1.9104974699056736,0.8979345718066192,0
rbt_605817,1.4568169013548629,76.65,1.900609134187688,0.8933393026886801,0
smt_13591,3.0964672048264115,163.8,1.890395118941643,0.9378008971598913,0
sbt_30492,2.351343781234427,124.95,1.8818277560899777,0.8843495035667983,0
rbt_607387,1.6905705378600877,90.3,1.8721711382725226,0.8797930020059829,0
sbt_21147,2.3953164133815994,128.1,1.8698801041230284,0.8786588114979802,0
sbt_17923,2.3953109161795303,128.1,1.8698758127865187,0.8786544829105584,0
rbt_626695,1.6835226070657112,90.3,1.8643661207815183,1.4122488935627526,0
rbt_623432,1.6833587315478902,90.3,1.864184641802758,0.876487724809806,0
sbt_3473,3.032860091506041,163.8,1.8515629374273752,0.8703274318729446,0
sbt_26790,3.9948643537747612,216.3,1.8469090863498665,0.8683603127123029,0
smt_18691,5.260131261609006,286.65,1.8350361980146543,0.9651380061551325,0
smt_18692,5.259438625059875,286.65,1.8347945665654546,0.9649684279507077,0
smt_22142,5.258821341822893,286.65,1.8345792226837236,0.964817791911525,0
smt_29410,5.2582612555822275,286.65,1.834383832402661,0.9646815174519076,0
smt_4821,5.257727011549022,286.65,1.8341974573692736,0.9645518897327278,0
smt_18693,5.257076539934637,286.65,1.8339705354734477,0.9643945356225836,0
smt_5832,5.25647725054178,286.65,1.833761468879044,0.9642500258252227,0
smt_18694,5.255849854986693,286.65,1.8335425972393837,0.9640992159985927,0
smt_5643,5.255297031085195,286.65,1.8333497404797474,0.9639667372395248,0
smt_29483,5.254747701787651,286.65,1.8331581028388808,0.9638354738149254,0
smt_6014,5.254203738298137,286.65,1.8329683371003442,0.9637058648903646,0
smt_18695,5.253576359481457,286.65,1.8327494713000028,0.9635568422670285,0
smt_29482,5.253018673732312,286.65,1.8325549184483907,0.9634247903207674,0
smt_6195,5.252434284844641,286.65,1.8323510500068523,0.9632868372181577,0
smt_6105,5.251847930042831,286.65,1.8321464957414375,0.9631488552232476,0
smt_19334,5.219548107279079,286.65,1.8208784605892476,0.9453088470613012,0
smt_19331,5.218930208320657,286.65,1.82066290190848,0.945123191742745,0
smt_22269,5.218323444409009,286.65,1.8204512277721994,0.9449412400587303,0
sbt_34896,3.9054817469934897,216.3,1.8055856435476143,0.8487064301332006,0
sbt_34381,2.9168159967297873,163.8,1.7807179467214818,0.8370562462327727,0
rbt_605808,1.5784073058092374,90.3,1.7479593641298312,0.8212673293609187,0
rbt_1607326,1.5758308061166735,90.3,1.745106097582141,0.820451807376978,0
smt_29480,4.982936813507295,286.65,1.7383348381326689,0.9612684479015347,0
smt_19271,4.981793629465762,286.65,1.7379360298153714,0.9610426020054912,0
smt_5537,4.981339867366496,286.65,1.7377777315075864,0.9609534759171533,0
smt_40375,2.8461132493003385,163.8,1.7375538762517326,0.8646656321554049,0
smt_40374,2.8455605873338206,163.8,1.7372164757837734,0.8643390865469699,0
smt_40358,2.8450108602088617,163.8,1.7368808670383769,0.8640150979080264,0
smt_40357,2.8444321527691896,163.8,1.736527565793156,0.8636749216972083,0
smt_40356,2.8439448079725764,163.8,1.7362300414972993,0.8633891646417132,0
smt_40355,2.843388310682077,163.8,1.7358902995617074,0.8630636632577948,0
smt_40354,2.8428229162757894,163.8,1.7355451259314951,0.8627338406179472,0
smt_40353,2.842251023104912,163.8,1.7351959848015335,0.8624011379776874,0
smt_40352,2.8417736534327416,163.8,1.7349045503252387,0.8621241308921809,0
smt_40351,2.8413213140433333,163.8,1.7346283968518517,0.8618622443397737,0
smt_40350,2.840768593842433,163.8,1.734290960831766,0.8615430329399857,0
smt_40349,2.8402482047519526,163.8,1.7339732629743299,0.8612432941247065,0
smt_40373,2.8397152647498327,163.8,1.7336479027776754,0.860937136016208,0
smt_40348,2.839691679498803,163.8,1.7336335039675232,0.860923605754504,0
smt_40366,2.8392897602211242,163.8,1.7333881320031281,0.8560263202844663,0
smt_40380,2.839246196676473,163.8,1.733361536432523,0.8559995239769521,0
smt_40347,2.8391261095348392,163.8,1.7332882231592424,0.860599642599949,0
smt_40367,2.8388609257895485,163.8,1.7331263283208478,0.855762736979582,0
smt_40346,2.83856387624973,163.8,1.7329449793954392,0.8602785165760692,0
smt_40368,2.8383621903720564,163.8,1.7328218500439905,0.8554567754523132,0
smt_40369,2.838019705962946,163.8,1.7326127631031414,0.8552470380097853,0
smt_40345,2.8379931884055836,163.8,1.7325965741181826,0.8599535118474936,0
smt_40344,2.8374312881298986,163.8,1.7322535336568368,0.8596344528144994,0
smt_19274,4.962952296792629,286.65,1.7313630897584615,0.9494989738099328,0
smt_4942,4.962418522865803,286.65,1.731176878725206,0.9493920239718387,0
smt_40362,2.8354065363349066,163.8,1.731017421449882,0.8536567258293822,0
smt_18740,4.96189776650887,286.65,1.730995208968732,0.9492880676717442,0
smt_5191,4.961379479387405,286.65,1.73081440062355,0.9491849833144856,0
smt_40378,2.835073278535171,163.8,1.730813967359689,0.853455199377772,0
smt_5198,4.960866151990633,286.65,1.7306353225154831,0.9490832592064194,0
smt_40361,2.8345327172286074,163.8,1.730483954352019,0.8531289410479403,0
smt_5549,4.96030047731325,286.65,1.7304379826664051,0.9489715954465431,0
smt_19273,4.959721999866699,286.65,1.7302361764753877,0.9488579081998422,0
smt_40360,2.8339671313136514,163.8,1.7301386638056477,0.8527884153999276,0
smt_5414,4.959236454611609,286.65,1.7300667903755829,0.9487628656327266,0
smt_5522,4.958696649919238,286.65,1.729878475464587,0.9486575960044316,0
smt_40359,2.8334330190559083,163.8,1.7298125879462198,0.8524676295772163,0
smt_40377,2.8327725836019213,163.8,1.7294093916983646,0.8520720432702152,0
smt_40376,2.8322180541680013,163.8,1.7290708511404156,0.85174081110098,0
smt_40861,4.93544806676837,286.65,1.721768033060656,0.9340368116460734,0
smt_40860,4.935099001747334,286.65,1.721646259112972,0.9339664419316375,0
smt_40859,4.934732084817158,286.65,1.7215182573930434,0.9338926599332775,0
smt_40858,4.9343601072034975,286.65,1.7213884902157677,0.9338180558026851,0
...